xflr5 v6.61

 Calculated polar for: NACA 0006

 1 1 Reynolds number fixed          Mach number fixed         

 xtrf =   1.000 (top)        1.000 (bottom)
 Mach =   0.300     Re =     0.500 e 6     Ncrit =   9.000

  alpha     CL        CD       CDp       Cm    Top Xtr Bot Xtr   Cpmin    Chinge    XCp    
 ------- -------- --------- --------- -------- ------- ------- -------- --------- ---------
 -10.000  -0.6993   0.11928   0.11698   0.0350  1.0000  0.0144  -2.2294   0.0000   0.0000   0.0000   0.2955
  -9.500  -0.6952   0.11083   0.10856   0.0313  1.0000  0.0159  -2.2211   0.0000   0.0000   0.0000   0.2909
  -9.000  -0.2067   0.00972   0.00810  -0.0332  1.0000  0.0170  -1.5632   0.0000   0.0000   0.0000   0.0937
  -8.500  -0.2294   0.00613   0.00455  -0.0365  1.0000  0.0163  -1.9003   0.0000   0.0000   0.0000   0.0935
  -8.000  -0.2607   0.00423   0.00259  -0.0386  1.0000  0.0165  -2.0838   0.0000   0.0000   0.0000   0.1036
  -7.500  -0.2821   0.00198   0.00012  -0.0470  0.9949  0.0162  -2.2608   0.0000   0.0000   0.0000   0.0846
  -7.000  -0.3029   0.00073  -0.00144  -0.0516  0.9869  0.0154  -2.4213   0.0000   0.0000   0.0000   0.0807
  -6.500  -0.3102   0.00012  -0.00266  -0.0532  0.9744  0.0135  -2.7322   0.0000   0.0000   0.0000   0.0795
  -6.000  -0.2359   0.00001  -0.00330  -0.0579  0.9593  0.0145  -2.5242   0.0000   0.0000   0.0000   0.0069
  -5.500  -0.6112   0.02725   0.02297  -0.0096  1.0000  0.0173  -3.2488   0.0000   0.0000   0.0000   0.2314
  -5.000  -0.5659   0.01888   0.01343  -0.0062  1.0000  0.0123  -3.6619   0.0000   0.0000   0.0000   0.2362
  -4.500  -0.5165   0.01385   0.00772  -0.0037  1.0000  0.0126  -3.6042   0.0000   0.0000   0.0000   0.2402
  -4.000  -0.4645   0.01156   0.00521  -0.0018  1.0000  0.0176  -3.2334   0.0000   0.0000   0.0000   0.2438
  -3.500  -0.4111   0.01023   0.00371  -0.0004  1.0000  0.0265  -2.7120   0.0000   0.0000   0.0000   0.2471
  -3.000  -0.3579   0.00892   0.00240   0.0011  1.0000  0.0531  -2.1703   0.0000   0.0000   0.0000   0.2514
  -2.500  -0.3074   0.00732   0.00174   0.0021  1.0000  0.2776  -1.5967   0.0000   0.0000   0.0000   0.2553
  -2.000  -0.2573   0.00600   0.00144   0.0034  1.0000  0.5511  -1.2054   0.0000   0.0000   0.0000   0.2617
  -1.500  -0.2079   0.00513   0.00132   0.0056  1.0000  0.7642  -0.8667   0.0000   0.0000   0.0000   0.2755
  -1.000  -0.1599   0.00478   0.00143   0.0089  1.0000  0.9153  -0.5793   0.0000   0.0000   0.0000   0.3050
  -0.500  -0.0778   0.00484   0.00150   0.0044  1.0000  0.9847  -0.3450   0.0000   0.0000   0.0000   0.3060
   0.000  -0.0000   0.00485   0.00150  -0.0000  1.0000  1.0000  -0.2221   0.0000   0.0000   0.0000  -0.5268
   0.500   0.0778   0.00484   0.00150  -0.0044  0.9847  1.0000  -0.3450   0.0000   0.0000   0.0000   0.3060
   1.000   0.1598   0.00478   0.00142  -0.0089  0.9153  1.0000  -0.5793   0.0000   0.0000   0.0000   0.3049
   1.500   0.2079   0.00513   0.00132  -0.0055  0.7642  1.0000  -0.8667   0.0000   0.0000   0.0000   0.2755
   2.000   0.2573   0.00600   0.00144  -0.0033  0.5511  1.0000  -1.2054   0.0000   0.0000   0.0000   0.2616
   2.500   0.3073   0.00732   0.00174  -0.0021  0.2777  1.0000  -1.5965   0.0000   0.0000   0.0000   0.2553
   3.000   0.3579   0.00892   0.00240  -0.0011  0.0532  1.0000  -2.1702   0.0000   0.0000   0.0000   0.2513
   3.500   0.4111   0.01023   0.00371   0.0004  0.0265  1.0000  -2.7120   0.0000   0.0000   0.0000   0.2471
   4.000   0.4645   0.01156   0.00521   0.0018  0.0176  1.0000  -3.2333   0.0000   0.0000   0.0000   0.2438
   4.500   0.5165   0.01385   0.00772   0.0037  0.0126  1.0000  -3.6042   0.0000   0.0000   0.0000   0.2402
   5.000   0.5660   0.01888   0.01343   0.0062  0.0123  1.0000  -3.6619   0.0000   0.0000   0.0000   0.2363
   6.500   0.6757   0.04668   0.04388   0.0112  0.0213  1.0000  -2.8453   0.0000   0.0000   0.0000   0.2306
   7.000   0.6947   0.05540   0.05295   0.0089  0.0202  1.0000  -2.9506   0.0000   0.0000   0.0000   0.2341


